@<TRIPOS>MOLECULE
ligand.pdb
   36    36     1     0     0
SMALL
bcc


@<TRIPOS>ATOM
      1 N          -10.7730    -4.5670     8.4560 ns         1 UNK      -0.593900
      2 N1         -14.4480    -2.4360     9.1040 ns         1 UNK      -0.557900
      3 CA          -9.3810    -4.9410     8.3880 c3         1 UNK       0.069700
      4 C          -11.7240    -4.6010     7.5280 c          1 UNK       0.667100
      5 C1         -13.1230    -4.2060     8.0080 c3         1 UNK      -0.179400
      6 C2         -13.1270    -3.0550     9.0320 c3         1 UNK       0.097000
      7 C3         -14.6700    -1.1210     9.0190 c          1 UNK       0.690100
      8 C4         -16.1170    -0.6570     9.1180 c3         1 UNK      -0.178100
      9 C5          -9.4550    -6.4770     8.4500 c          1 UNK       0.606100
     10 O          -11.5240    -4.9150     6.3540 o          1 UNK      -0.583100
     11 O1         -13.7750    -0.2940     8.8730 o          1 UNK      -0.709100
     12 O2          -8.6690    -7.1160     7.7340 o          1 UNK      -0.481000
     13 CB          -8.5670    -4.2600     9.5190 c3         1 UNK      -0.044100
     14 CG          -8.3880    -5.0540    10.7990 cc         1 UNK      -0.051600
     15 CD2         -7.2750    -5.3110    11.5790 cd         1 UNK      -0.131300
     16 ND1         -9.4520    -5.6630    11.4420 na         1 UNK      -0.124100
     17 CE1         -8.9670    -6.2600    12.5300 cc         1 UNK       0.046400
     18 NE2         -7.6590    -6.0910    12.6830 na         1 UNK      -0.142100
     19 OXT        -10.2850    -7.0340     9.1470 oh         1 UNK      -0.647100
     20 H01         -8.8480    -4.6130     7.4960 h1         1 UNK       0.113700
     21 H02        -13.5440    -5.0780     8.5090 hc         1 UNK       0.092200
     22 H03        -13.7100    -3.8990     7.1420 hc         1 UNK       0.092200
     23 H04        -12.4030    -2.3030     8.7180 h1         1 UNK       0.069200
     24 H05        -12.8600    -3.4470    10.0140 h1         1 UNK       0.069200
     25 H06        -16.7460    -1.4920     9.4260 hc         1 UNK       0.077367
     26 H07        -16.1930     0.1440     9.8530 hc         1 UNK       0.077367
     27 H08        -16.4490    -0.2920     8.1460 hc         1 UNK       0.077367
     28 H09         -9.1490    -3.3830     9.8040 hc         1 UNK       0.117200
     29 H10         -7.5750    -4.0370     9.1260 hc         1 UNK       0.117200
     30 H11         -6.2630    -4.9640    11.3710 h4         1 UNK       0.229000
     31 H12         -9.5830    -6.8300    13.2250 h5         1 UNK       0.266000
     32 H          -10.9430    -4.4180     9.4570 hn         1 UNK       0.326500
     33 H2         -15.2380    -3.0510     9.2200 hn         1 UNK       0.328500
     34 HD1        -10.4100    -5.6660    11.1210 hn         1 UNK       0.368700
     35 HE2         -7.0660    -6.4470    13.4320 hn         1 UNK       0.353700
     36 HXT         -9.8240    -7.6420     9.7450 ho         1 UNK       0.474000
@<TRIPOS>BOND
     1     1     4 1   
     2     1    32 1   
     3     1     3 1   
     4     2     7 1   
     5     2    33 1   
     6     2     6 1   
     7     3     9 1   
     8     3    13 1   
     9     3    20 1   
    10     4     5 1   
    11     4    10 2   
    12     5     6 1   
    13     5    21 1   
    14     5    22 1   
    15     6    23 1   
    16     6    24 1   
    17     7     8 1   
    18     7    11 2   
    19     8    25 1   
    20     8    26 1   
    21     8    27 1   
    22     9    12 2   
    23     9    19 1   
    24    13    14 1   
    25    13    28 1   
    26    13    29 1   
    27    14    15 2   
    28    14    16 1   
    29    15    18 1   
    30    15    30 1   
    31    16    34 1   
    32    16    17 2   
    33    17    31 1   
    34    17    18 1   
    35    18    35 1   
    36    19    36 1   
@<TRIPOS>SUBSTRUCTURE
     1 UNK         1 TEMP              0 ****  ****    0 ROOT
